<?xml version="1.0" encoding="UTF-8" standalone="yes"?>
<template encoding-version="1.3">
    <description></description>
    <groupId>14fa13a1-c608-3039-a685-a553a36f256c</groupId>
    <name>DEMO_Flow</name>
    <snippet>
        <connections>
            <id>2c7308b4-faba-3172-0000-000000000000</id>
            <parentGroupId>69dd932b-864e-38da-0000-000000000000</parentGroupId>
            <versionedComponentId>2c7308b4-faba-3172-a2ac-b6268c6dafd7</versionedComponentId>
            <backPressureDataSizeThreshold>1 GB</backPressureDataSizeThreshold>
            <backPressureObjectThreshold>10000</backPressureObjectThreshold>
            <destination>
                <groupId>69dd932b-864e-38da-0000-000000000000</groupId>
                <id>2b79eddc-f558-35e9-0000-000000000000</id>
                <type>PROCESSOR</type>
                <versionedComponentId>2b79eddc-f558-35e9-9045-23d00d35a469</versionedComponentId>
            </destination>
            <flowFileExpiration>0 sec</flowFileExpiration>
            <labelIndex>1</labelIndex>
            <loadBalanceCompression>DO_NOT_COMPRESS</loadBalanceCompression>
            <loadBalancePartitionAttribute></loadBalancePartitionAttribute>
            <loadBalanceStatus>LOAD_BALANCE_NOT_CONFIGURED</loadBalanceStatus>
            <loadBalanceStrategy>DO_NOT_LOAD_BALANCE</loadBalanceStrategy>
            <name></name>
            <selectedRelationships>success</selectedRelationships>
            <source>
                <groupId>69dd932b-864e-38da-0000-000000000000</groupId>
                <id>1fbcc0cd-5770-3a52-0000-000000000000</id>
                <type>PROCESSOR</type>
                <versionedComponentId>1fbcc0cd-5770-3a52-a074-80ceb1e1b173</versionedComponentId>
            </source>
            <zIndex>0</zIndex>
        </connections>
        <connections>
            <id>c755488a-430b-31dc-0000-000000000000</id>
            <parentGroupId>69dd932b-864e-38da-0000-000000000000</parentGroupId>
            <versionedComponentId>c755488a-430b-31dc-ba29-6cf380a123f4</versionedComponentId>
            <backPressureDataSizeThreshold>1 GB</backPressureDataSizeThreshold>
            <backPressureObjectThreshold>10000</backPressureObjectThreshold>
            <destination>
                <groupId>69dd932b-864e-38da-0000-000000000000</groupId>
                <id>25658f88-dbae-3eaa-0000-000000000000</id>
                <type>PROCESSOR</type>
                <versionedComponentId>25658f88-dbae-3eaa-b69c-7ed172b71aa5</versionedComponentId>
            </destination>
            <flowFileExpiration>0 sec</flowFileExpiration>
            <labelIndex>1</labelIndex>
            <loadBalanceCompression>DO_NOT_COMPRESS</loadBalanceCompression>
            <loadBalancePartitionAttribute></loadBalancePartitionAttribute>
            <loadBalanceStatus>LOAD_BALANCE_NOT_CONFIGURED</loadBalanceStatus>
            <loadBalanceStrategy>DO_NOT_LOAD_BALANCE</loadBalanceStrategy>
            <name></name>
            <selectedRelationships>merged</selectedRelationships>
            <source>
                <groupId>69dd932b-864e-38da-0000-000000000000</groupId>
                <id>2b79eddc-f558-35e9-0000-000000000000</id>
                <type>PROCESSOR</type>
                <versionedComponentId>2b79eddc-f558-35e9-9045-23d00d35a469</versionedComponentId>
            </source>
            <zIndex>0</zIndex>
        </connections>
        <controllerServices>
            <id>2f052aed-2cdb-3f4d-0000-000000000000</id>
            <parentGroupId>69dd932b-864e-38da-0000-000000000000</parentGroupId>
            <versionedComponentId>cf0d6615-e15e-349e-914b-d5cac7e5648a</versionedComponentId>
            <bulletinLevel>WARN</bulletinLevel>
            <bundle>
                <artifact>nifi-record-serialization-services-nar</artifact>
                <group>org.apache.nifi</group>
                <version>1.24.0</version>
            </bundle>
            <comments></comments>
            <descriptors>
                <entry>
                    <key>Schema Write Strategy</key>
                    <value>
                        <name>Schema Write Strategy</name>
                    </value>
                </entry>
                <entry>
                    <key>schema-cache</key>
                    <value>
                        <identifiesControllerService>org.apache.nifi.serialization.RecordSchemaCacheService</identifiesControllerService>
                        <name>schema-cache</name>
                    </value>
                </entry>
                <entry>
                    <key>schema-protocol-version</key>
                    <value>
                        <dependencies>
                            <dependentValues>hwx-schema-ref-attributes</dependentValues>
                            <dependentValues>hwx-content-encoded-schema</dependentValues>
                            <propertyName>Schema Write Strategy</propertyName>
                        </dependencies>
                        <name>schema-protocol-version</name>
                    </value>
                </entry>
                <entry>
                    <key>schema-access-strategy</key>
                    <value>
                        <name>schema-access-strategy</name>
                    </value>
                </entry>
                <entry>
                    <key>schema-registry</key>
                    <value>
                        <dependencies>
                            <dependentValues>confluent-encoded</dependentValues>
                            <dependentValues>schema-name</dependentValues>
                            <dependentValues>hwx-schema-ref-attributes</dependentValues>
                            <dependentValues>hwx-content-encoded-schema</dependentValues>
                            <propertyName>schema-access-strategy</propertyName>
                        </dependencies>
                        <identifiesControllerService>org.apache.nifi.schemaregistry.services.SchemaRegistry</identifiesControllerService>
                        <name>schema-registry</name>
                    </value>
                </entry>
                <entry>
                    <key>schema-name</key>
                    <value>
                        <dependencies>
                            <dependentValues>schema-name</dependentValues>
                            <propertyName>schema-access-strategy</propertyName>
                        </dependencies>
                        <name>schema-name</name>
                    </value>
                </entry>
                <entry>
                    <key>schema-version</key>
                    <value>
                        <dependencies>
                            <dependentValues>schema-name</dependentValues>
                            <propertyName>schema-access-strategy</propertyName>
                        </dependencies>
                        <name>schema-version</name>
                    </value>
                </entry>
                <entry>
                    <key>schema-branch</key>
                    <value>
                        <dependencies>
                            <dependentValues>schema-name</dependentValues>
                            <propertyName>schema-access-strategy</propertyName>
                        </dependencies>
                        <name>schema-branch</name>
                    </value>
                </entry>
                <entry>
                    <key>schema-text</key>
                    <value>
                        <dependencies>
                            <dependentValues>schema-text-property</dependentValues>
                            <propertyName>schema-access-strategy</propertyName>
                        </dependencies>
                        <name>schema-text</name>
                    </value>
                </entry>
                <entry>
                    <key>Date Format</key>
                    <value>
                        <name>Date Format</name>
                    </value>
                </entry>
                <entry>
                    <key>Time Format</key>
                    <value>
                        <name>Time Format</name>
                    </value>
                </entry>
                <entry>
                    <key>Timestamp Format</key>
                    <value>
                        <name>Timestamp Format</name>
                    </value>
                </entry>
                <entry>
                    <key>CSV Format</key>
                    <value>
                        <name>CSV Format</name>
                    </value>
                </entry>
                <entry>
                    <key>Value Separator</key>
                    <value>
                        <dependencies>
                            <dependentValues>custom</dependentValues>
                            <propertyName>CSV Format</propertyName>
                        </dependencies>
                        <name>Value Separator</name>
                    </value>
                </entry>
                <entry>
                    <key>Include Header Line</key>
                    <value>
                        <name>Include Header Line</name>
                    </value>
                </entry>
                <entry>
                    <key>Quote Character</key>
                    <value>
                        <dependencies>
                            <dependentValues>custom</dependentValues>
                            <propertyName>CSV Format</propertyName>
                        </dependencies>
                        <name>Quote Character</name>
                    </value>
                </entry>
                <entry>
                    <key>Escape Character</key>
                    <value>
                        <dependencies>
                            <dependentValues>custom</dependentValues>
                            <propertyName>CSV Format</propertyName>
                        </dependencies>
                        <name>Escape Character</name>
                    </value>
                </entry>
                <entry>
                    <key>Comment Marker</key>
                    <value>
                        <dependencies>
                            <dependentValues>custom</dependentValues>
                            <propertyName>CSV Format</propertyName>
                        </dependencies>
                        <name>Comment Marker</name>
                    </value>
                </entry>
                <entry>
                    <key>Null String</key>
                    <value>
                        <dependencies>
                            <dependentValues>custom</dependentValues>
                            <propertyName>CSV Format</propertyName>
                        </dependencies>
                        <name>Null String</name>
                    </value>
                </entry>
                <entry>
                    <key>Trim Fields</key>
                    <value>
                        <dependencies>
                            <dependentValues>custom</dependentValues>
                            <propertyName>CSV Format</propertyName>
                        </dependencies>
                        <name>Trim Fields</name>
                    </value>
                </entry>
                <entry>
                    <key>Quote Mode</key>
                    <value>
                        <dependencies>
                            <dependentValues>custom</dependentValues>
                            <propertyName>CSV Format</propertyName>
                        </dependencies>
                        <name>Quote Mode</name>
                    </value>
                </entry>
                <entry>
                    <key>Record Separator</key>
                    <value>
                        <dependencies>
                            <dependentValues>custom</dependentValues>
                            <propertyName>CSV Format</propertyName>
                        </dependencies>
                        <name>Record Separator</name>
                    </value>
                </entry>
                <entry>
                    <key>Include Trailing Delimiter</key>
                    <value>
                        <dependencies>
                            <dependentValues>custom</dependentValues>
                            <propertyName>CSV Format</propertyName>
                        </dependencies>
                        <name>Include Trailing Delimiter</name>
                    </value>
                </entry>
                <entry>
                    <key>csvutils-character-set</key>
                    <value>
                        <name>csvutils-character-set</name>
                    </value>
                </entry>
            </descriptors>
            <name>CSVRecordSetWriter</name>
            <persistsState>false</persistsState>
            <properties>
                <entry>
                    <key>Schema Write Strategy</key>
                    <value>no-schema</value>
                </entry>
                <entry>
                    <key>schema-cache</key>
                </entry>
                <entry>
                    <key>schema-protocol-version</key>
                    <value>1</value>
                </entry>
                <entry>
                    <key>schema-access-strategy</key>
                    <value>inherit-record-schema</value>
                </entry>
                <entry>
                    <key>schema-registry</key>
                </entry>
                <entry>
                    <key>schema-name</key>
                    <value>${schema.name}</value>
                </entry>
                <entry>
                    <key>schema-version</key>
                </entry>
                <entry>
                    <key>schema-branch</key>
                </entry>
                <entry>
                    <key>schema-text</key>
                    <value>${avro.schema}</value>
                </entry>
                <entry>
                    <key>Date Format</key>
                </entry>
                <entry>
                    <key>Time Format</key>
                </entry>
                <entry>
                    <key>Timestamp Format</key>
                </entry>
                <entry>
                    <key>CSV Format</key>
                    <value>custom</value>
                </entry>
                <entry>
                    <key>Value Separator</key>
                    <value>,</value>
                </entry>
                <entry>
                    <key>Include Header Line</key>
                    <value>false</value>
                </entry>
                <entry>
                    <key>Quote Character</key>
                    <value>"</value>
                </entry>
                <entry>
                    <key>Escape Character</key>
                    <value>\</value>
                </entry>
                <entry>
                    <key>Comment Marker</key>
                </entry>
                <entry>
                    <key>Null String</key>
                </entry>
                <entry>
                    <key>Trim Fields</key>
                    <value>true</value>
                </entry>
                <entry>
                    <key>Quote Mode</key>
                    <value>MINIMAL</value>
                </entry>
                <entry>
                    <key>Record Separator</key>
                    <value>\n</value>
                </entry>
                <entry>
                    <key>Include Trailing Delimiter</key>
                    <value>false</value>
                </entry>
                <entry>
                    <key>csvutils-character-set</key>
                    <value>UTF-8</value>
                </entry>
            </properties>
            <state>DISABLED</state>
            <type>org.apache.nifi.csv.CSVRecordSetWriter</type>
        </controllerServices>
        <controllerServices>
            <id>8c453025-1b18-3aa9-0000-000000000000</id>
            <parentGroupId>69dd932b-864e-38da-0000-000000000000</parentGroupId>
            <versionedComponentId>47d14710-3dd7-3e45-a96f-9774b559b7f6</versionedComponentId>
            <bulletinLevel>WARN</bulletinLevel>
            <bundle>
                <artifact>nifi-record-serialization-services-nar</artifact>
                <group>org.apache.nifi</group>
                <version>1.24.0</version>
            </bundle>
            <comments></comments>
            <descriptors>
                <entry>
                    <key>Schema Write Strategy</key>
                    <value>
                        <name>Schema Write Strategy</name>
                    </value>
                </entry>
                <entry>
                    <key>schema-cache</key>
                    <value>
                        <identifiesControllerService>org.apache.nifi.serialization.RecordSchemaCacheService</identifiesControllerService>
                        <name>schema-cache</name>
                    </value>
                </entry>
                <entry>
                    <key>schema-protocol-version</key>
                    <value>
                        <dependencies>
                            <dependentValues>hwx-schema-ref-attributes</dependentValues>
                            <dependentValues>hwx-content-encoded-schema</dependentValues>
                            <propertyName>Schema Write Strategy</propertyName>
                        </dependencies>
                        <name>schema-protocol-version</name>
                    </value>
                </entry>
                <entry>
                    <key>schema-access-strategy</key>
                    <value>
                        <name>schema-access-strategy</name>
                    </value>
                </entry>
                <entry>
                    <key>schema-registry</key>
                    <value>
                        <dependencies>
                            <dependentValues>confluent-encoded</dependentValues>
                            <dependentValues>schema-name</dependentValues>
                            <dependentValues>hwx-schema-ref-attributes</dependentValues>
                            <dependentValues>hwx-content-encoded-schema</dependentValues>
                            <propertyName>schema-access-strategy</propertyName>
                        </dependencies>
                        <identifiesControllerService>org.apache.nifi.schemaregistry.services.SchemaRegistry</identifiesControllerService>
                        <name>schema-registry</name>
                    </value>
                </entry>
                <entry>
                    <key>schema-name</key>
                    <value>
                        <dependencies>
                            <dependentValues>schema-name</dependentValues>
                            <propertyName>schema-access-strategy</propertyName>
                        </dependencies>
                        <name>schema-name</name>
                    </value>
                </entry>
                <entry>
                    <key>schema-version</key>
                    <value>
                        <dependencies>
                            <dependentValues>schema-name</dependentValues>
                            <propertyName>schema-access-strategy</propertyName>
                        </dependencies>
                        <name>schema-version</name>
                    </value>
                </entry>
                <entry>
                    <key>schema-branch</key>
                    <value>
                        <dependencies>
                            <dependentValues>schema-name</dependentValues>
                            <propertyName>schema-access-strategy</propertyName>
                        </dependencies>
                        <name>schema-branch</name>
                    </value>
                </entry>
                <entry>
                    <key>schema-text</key>
                    <value>
                        <dependencies>
                            <dependentValues>schema-text-property</dependentValues>
                            <propertyName>schema-access-strategy</propertyName>
                        </dependencies>
                        <name>schema-text</name>
                    </value>
                </entry>
                <entry>
                    <key>Date Format</key>
                    <value>
                        <name>Date Format</name>
                    </value>
                </entry>
                <entry>
                    <key>Time Format</key>
                    <value>
                        <name>Time Format</name>
                    </value>
                </entry>
                <entry>
                    <key>Timestamp Format</key>
                    <value>
                        <name>Timestamp Format</name>
                    </value>
                </entry>
                <entry>
                    <key>Pretty Print JSON</key>
                    <value>
                        <name>Pretty Print JSON</name>
                    </value>
                </entry>
                <entry>
                    <key>suppress-nulls</key>
                    <value>
                        <name>suppress-nulls</name>
                    </value>
                </entry>
                <entry>
                    <key>output-grouping</key>
                    <value>
                        <name>output-grouping</name>
                    </value>
                </entry>
                <entry>
                    <key>compression-format</key>
                    <value>
                        <name>compression-format</name>
                    </value>
                </entry>
                <entry>
                    <key>compression-level</key>
                    <value>
                        <dependencies>
                            <dependentValues>gzip</dependentValues>
                            <propertyName>compression-format</propertyName>
                        </dependencies>
                        <name>compression-level</name>
                    </value>
                </entry>
                <entry>
                    <key>Allow Scientific Notation</key>
                    <value>
                        <name>Allow Scientific Notation</name>
                    </value>
                </entry>
            </descriptors>
            <name>JsonRecordSetWriter</name>
            <persistsState>false</persistsState>
            <properties>
                <entry>
                    <key>Schema Write Strategy</key>
                    <value>no-schema</value>
                </entry>
                <entry>
                    <key>schema-cache</key>
                </entry>
                <entry>
                    <key>schema-protocol-version</key>
                    <value>1</value>
                </entry>
                <entry>
                    <key>schema-access-strategy</key>
                    <value>inherit-record-schema</value>
                </entry>
                <entry>
                    <key>schema-registry</key>
                </entry>
                <entry>
                    <key>schema-name</key>
                    <value>${schema.name}</value>
                </entry>
                <entry>
                    <key>schema-version</key>
                </entry>
                <entry>
                    <key>schema-branch</key>
                </entry>
                <entry>
                    <key>schema-text</key>
                    <value>${avro.schema}</value>
                </entry>
                <entry>
                    <key>Date Format</key>
                </entry>
                <entry>
                    <key>Time Format</key>
                </entry>
                <entry>
                    <key>Timestamp Format</key>
                </entry>
                <entry>
                    <key>Pretty Print JSON</key>
                    <value>false</value>
                </entry>
                <entry>
                    <key>suppress-nulls</key>
                    <value>never-suppress</value>
                </entry>
                <entry>
                    <key>output-grouping</key>
                    <value>output-oneline</value>
                </entry>
                <entry>
                    <key>compression-format</key>
                    <value>none</value>
                </entry>
                <entry>
                    <key>compression-level</key>
                    <value>1</value>
                </entry>
                <entry>
                    <key>Allow Scientific Notation</key>
                    <value>false</value>
                </entry>
            </properties>
            <state>DISABLED</state>
            <type>org.apache.nifi.json.JsonRecordSetWriter</type>
        </controllerServices>
        <controllerServices>
            <id>d4cecad2-12fe-3494-0000-000000000000</id>
            <parentGroupId>69dd932b-864e-38da-0000-000000000000</parentGroupId>
            <versionedComponentId>bebf5f98-659a-34db-9da2-ccc803955d15</versionedComponentId>
            <bulletinLevel>WARN</bulletinLevel>
            <bundle>
                <artifact>nifi-record-serialization-services-nar</artifact>
                <group>org.apache.nifi</group>
                <version>1.24.0</version>
            </bundle>
            <comments></comments>
            <descriptors>
                <entry>
                    <key>schema-access-strategy</key>
                    <value>
                        <name>schema-access-strategy</name>
                    </value>
                </entry>
                <entry>
                    <key>schema-registry</key>
                    <value>
                        <dependencies>
                            <dependentValues>confluent-encoded</dependentValues>
                            <dependentValues>schema-name</dependentValues>
                            <dependentValues>hwx-schema-ref-attributes</dependentValues>
                            <dependentValues>hwx-content-encoded-schema</dependentValues>
                            <propertyName>schema-access-strategy</propertyName>
                        </dependencies>
                        <identifiesControllerService>org.apache.nifi.schemaregistry.services.SchemaRegistry</identifiesControllerService>
                        <name>schema-registry</name>
                    </value>
                </entry>
                <entry>
                    <key>schema-name</key>
                    <value>
                        <dependencies>
                            <dependentValues>schema-name</dependentValues>
                            <propertyName>schema-access-strategy</propertyName>
                        </dependencies>
                        <name>schema-name</name>
                    </value>
                </entry>
                <entry>
                    <key>schema-version</key>
                    <value>
                        <dependencies>
                            <dependentValues>schema-name</dependentValues>
                            <propertyName>schema-access-strategy</propertyName>
                        </dependencies>
                        <name>schema-version</name>
                    </value>
                </entry>
                <entry>
                    <key>schema-branch</key>
                    <value>
                        <dependencies>
                            <dependentValues>schema-name</dependentValues>
                            <propertyName>schema-access-strategy</propertyName>
                        </dependencies>
                        <name>schema-branch</name>
                    </value>
                </entry>
                <entry>
                    <key>schema-text</key>
                    <value>
                        <dependencies>
                            <dependentValues>schema-text-property</dependentValues>
                            <propertyName>schema-access-strategy</propertyName>
                        </dependencies>
                        <name>schema-text</name>
                    </value>
                </entry>
                <entry>
                    <key>csv-reader-csv-parser</key>
                    <value>
                        <name>csv-reader-csv-parser</name>
                    </value>
                </entry>
                <entry>
                    <key>Date Format</key>
                    <value>
                        <name>Date Format</name>
                    </value>
                </entry>
                <entry>
                    <key>Time Format</key>
                    <value>
                        <name>Time Format</name>
                    </value>
                </entry>
                <entry>
                    <key>Timestamp Format</key>
                    <value>
                        <name>Timestamp Format</name>
                    </value>
                </entry>
                <entry>
                    <key>CSV Format</key>
                    <value>
                        <name>CSV Format</name>
                    </value>
                </entry>
                <entry>
                    <key>Value Separator</key>
                    <value>
                        <dependencies>
                            <dependentValues>custom</dependentValues>